Created on 15 September.
new line...
new line again..